Version 4
SHEET 1 880 1464
TEXT -552 48 Left 2 !* Boost Converter Circuit Simulation for Stability Analysis\n \n.param Vin=5\n.param L=100uH\n.param C=100uF\n.param Rload=100\n.param f=100k\n.param D=0.6  ; \n \n* Input Voltage Source\nV1 N001 0 DC {Vin}  \n \n* MOSFET Switch (IRF540)\nM1 N003 N002 0 0 IRF540\n \n* Schottky Diode\nD1 N004 N003 D1N5822\n \n* Inductor\nL1 N001 N003 {L}\n \n* Output Capacitor\nC1 N004 0 {C}\n \n* Load Resistance\nR1 N004 0 {Rload}\n \n* Gate Drive (PWM: 100kHz, 50% Duty Cycle)\nV2 N002 0 PULSE(0 5 0 10n 10n {1/(2*f)} {1/f})\n \n* Efficiency Measurement\n.measure Pin AVG(V(N001)*I(V1)) \n.measure Pout AVG(V(N004)*I(R1)) \n.measure Efficiency param='Pout/Pin * 100'\n \n* Transient Analysis (Ripple, Load Response)\n.tran 1u 5m\n \n* Frequency Response (Bode Plot)\n;ac dec 20 10 1Meg\n.measure GainMargin FIND DB(V(N004)) WHEN F=100k\n.measure PhaseMargin FIND PHASE(V(N004)) WHEN F=100k\n \n* Line Regulation Test (Sweeps Vin from 4V to 6V)\n;dc V1 4 6 0.1\n \n.model D1N5822 D IS=1n RS=0.01\n.model IRF540 NMOS VTO=2.5 KP=50m\n.end
